Version 4
SHEET 1 940 680
WIRE 416 208 144 208
WIRE 592 224 480 224
WIRE 416 240 336 240
WIRE 592 272 592 224
WIRE 624 272 592 272
WIRE 768 288 688 288
WIRE 624 336 592 336
WIRE 416 352 208 352
WIRE 592 368 592 336
WIRE 592 368 480 368
WIRE 416 384 400 384
WIRE 336 432 336 240
WIRE 336 512 336 496
WIRE 400 512 400 384
WIRE 400 512 336 512
FLAG 400 592 0
FLAG 208 432 0
FLAG 144 288 0
SYMBOL and 448 176 R0
SYMATTR InstName A1
SYMBOL and 448 320 R0
SYMATTR InstName A2
SYMBOL or 656 240 R0
SYMATTR InstName A3
SYMBOL voltage 144 192 R0
SYMATTR InstName V1
SYMATTR Value PULSE(0 5 1n 1n 1n 2m 4m)
SYMBOL voltage 208 336 R0
SYMATTR InstName V2
SYMATTR Value PULSE(0 5 1n 1n 1n 1m 2m)
SYMBOL voltage 400 496 R0
SYMATTR InstName V3
SYMATTR Value PULSE(0 5 1n 1n 1n 2m 3m)
SYMBOL inv 272 496 R270
SYMATTR InstName A4
TEXT 376 160 Left 2 !.tran 40ms
